ElectricityNetView/example/dss/cm_VLN.Txt

SYMMETRICAL COMPONENT VOLTAGES BY BUS (for 3-phase buses)

Bus    Mag:   V1 (kV)    p.u.     V2 (kV)   %V2/V1    V0 (kV)    %V0/V1

南通海门变     134.6       1.06  6.579E-008  4.887E-008 8.758E-009 6.505E-009
中双港站      134.6       1.06  6.579E-008  4.887E-008 8.757E-009 6.504E-009
堡北站       134.6       1.06  6.579E-008  4.887E-008 8.757E-009 6.504E-009
陈家镇站      134.6       1.06  6.579E-008  4.887E-008 8.757E-009 6.504E-009
长兴站       134.6       1.06  6.579E-008  4.887E-008 8.757E-009 6.504E-009
南门站       134.6       1.06  6.579E-008  4.887E-008 8.757E-009 6.504E-009
红星站       134.6       1.06  6.579E-008  4.887E-008 8.757E-009 6.504E-009
新海站       134.6       1.06  6.579E-008  4.887E-008 8.757E-009 6.504E-009
竖河站       134.6       1.06  6.579E-008  4.887E-008 8.757E-009 6.504E-009
长江站       134.6       1.06  6.579E-008  4.887E-008 8.757E-009 6.504E-009
汲浜站       134.6       1.06  6.579E-008  4.887E-008 8.757E-009 6.504E-009
东风站       134.6       1.06  6.579E-008  4.887E-008 8.757E-009 6.504E-009
庙镇站       134.6       1.06  6.579E-008  4.887E-008 8.757E-009 6.504E-009
园区站       134.6       1.06  6.579E-008  4.887E-008 8.757E-009 6.504E-009
明珠站       134.6       1.06  6.579E-008  4.887E-008 8.757E-009 6.504E-009
建设站       134.6       1.06  6.579E-008  4.887E-008 8.757E-009 6.504E-009
湄洲站       134.6       1.06  6.579E-008  4.887E-008 8.757E-009 6.504E-009
大同站       134.6       1.06  6.579E-008  4.887E-008 8.757E-009 6.504E-009
五滧站       134.6       1.06  6.579E-008  4.887E-008 8.757E-009 6.504E-009
堡镇站       134.6       1.06  6.579E-008  4.887E-008 8.757E-009 6.504E-009
上船站       134.6       1.06  6.579E-008  4.887E-008 8.757E-009 6.504E-009
港沿站       134.6       1.06  6.579E-008  4.887E-008 8.757E-009 6.504E-009
裕安站       134.6       1.06  6.579E-008  4.887E-008 8.757E-009 6.504E-009
前哨站       134.6       1.06  6.579E-008  4.887E-008 8.757E-009 6.504E-009
陈东站       134.6       1.06  6.579E-008  4.887E-008 8.757E-009 6.504E-009
崇安站       134.6       1.06  6.579E-008  4.887E-008 8.757E-009 6.504E-009
新闸站       134.6       1.06  6.579E-008  4.887E-008 8.757E-009 6.504E-009
跃进站       134.6       1.06  6.579E-008  4.887E-008 8.757E-009 6.504E-009
三星站       134.6       1.06  6.579E-008  4.887E-008 8.757E-009 6.504E-009
前卫站       134.6       1.06  6.579E-008  4.887E-008 8.757E-009 6.504E-009
前进站       134.6       1.06  6.579E-008  4.887E-008 8.757E-009 6.504E-009
富盛站       134.6       1.06  6.579E-008  4.887E-008 8.757E-009 6.504E-009
新河站       134.6       1.06  6.579E-008  4.887E-008 8.757E-009 6.504E-009
森林站       134.6       1.06  6.579E-008  4.887E-008 8.757E-009 6.504E-009
启隆站       134.6       1.06  6.579E-008  4.887E-008 8.757E-009 6.504E-009
